@<TRIPOS>MOLECULE
HIT
 23 24 0 0 0
SMALL
GASTEIGER

@<TRIPOS>ATOM
      1 C          37.4609   38.2438   42.5156 C.3     1  UNL1        0.0160
      2 C          38.7196   39.0841   42.4844 C.3     1  UNL1        0.0455
      3 C          39.3928   38.8896   41.0911 C.3     1  UNL1        0.0160
      4 C          39.6569   38.5255   43.6068 C.3     1  UNL1        0.0160
      5 N          38.5214   40.5546   42.6905 N.3     1  UNL1       -0.2747
      6 C          37.5280   41.2356   41.8177 C.3     1  UNL1        0.0735
      7 C          36.6943   41.6262   43.0314 C.3     1  UNL1        0.0351
      8 C          37.7593   40.9375   43.9004 C.3     1  UNL1        0.0806
      9 C          38.5234   41.9021   44.7807 C.3     1  UNL1        0.1313
     10 N          37.7191   42.3602   45.9173 N.am    1  UNL1       -0.2002
     11 C          37.1162   43.6720   45.9378 C.2     1  UNL1        0.2663
     12 O          37.5263   44.5880   45.1529 O.2     1  UNL1       -0.2683
     13 C          36.0293   43.9727   46.8838 C.ar    1  UNL1        0.0743
     14 C          35.7828   45.2895   47.2963 C.ar    1  UNL1        0.1067
     15 N          34.7806   45.5731   48.1544 N.ar    1  UNL1       -0.2062
     16 C          33.9806   44.6053   48.6380 C.ar    1  UNL1        0.2832
     17 O          33.0607   44.9206   49.4278 O.2     1  UNL1       -0.2653
     18 C          34.1771   43.2653   48.2543 C.ar    1  UNL1        0.1292
     19 C          33.2779   42.1888   48.7695 C.3     1  UNL1        0.4230
     20 F          32.0335   42.4559   48.2775 F       1  UNL1       -0.1657
     21 F          33.2561   42.1750   50.1856 F       1  UNL1       -0.1657
     22 F          33.6744   40.9303   48.3482 F       1  UNL1       -0.1657
     23 C          35.2069   42.9637   47.3613 C.ar    1  UNL1        0.0149
@<TRIPOS>BOND
     1     1     2    1
     2     2     3    1
     3     2     4    1
     4     2     5    1
     5     5     6    1
     6     6     7    1
     7     7     8    1
     8     8     9    1
     9     8     5    1
    10     9    10    1
    11    10    11   am
    12    11    12    2
    13    11    13    1
    14    13    14   ar
    15    14    15   ar
    16    15    16   ar
    17    16    17    2
    18    16    18   ar
    19    18    19    1
    20    18    23   ar
    21    19    20    1
    22    19    21    1
    23    19    22    1
    24    23    13   ar
